
*2N4410 MCE 5-20-97
*Ref: Motorola Small-Signal Device Databook, Q4/94
*Si 625mW 80V 250mA 100MHz Amp pkg:TO-92B 1,2,3
.MODEL 2N4410 NPN (IS=25.4F NF=1 BF=260 VAF=161 IKF=0.15 ISE=12.6P NE=2
+ BR=4 NR=1 VAR=20 IKR=0.225 RE=0.206 RB=0.824 RC=82.4M XTB=1.5
+ CJE=60.3P VJE=1.1 MJE=0.5 CJC=34.7P VJC=0.3 MJC=0.3 TF=1.59N TR=1.1U)

* Origin: Mcebjt.lib
