
*2N2219A MCE 5/13/95
*Si 800mW  40V 800mA 350MHz pkg:TO-5 3,2,1
.MODEL 2N2219A NPN(IKR=0.285 RB=1.53 RE=0.383 RC=0.153 CJE=2.41E-11 
+ VJE=1.1 MJE=0.5 TF=4.54E-10 CJC=2.02E-11 VJC=0.3 MJC=0.3 TR=3.15E-7 
+ XTB=1.5 )

* Origin: Mcebjt.lib
