
*2N2905A MCE 7/5/95
*Si 600mW  60V 600mA 300MHz pkg:TO-5 3,2,1
.MODEL 2N2905A PNP(IS=6.09E-14 BF=130 VAF=139 IKF=0.36 ISE=4.68E-11 
+ NE=2 BR=4 VAR=20 IKR=0.54 RB=0.343 RE=0.0858 RC=0.0343 CJE=2.76E-11 
+ VJE=1.1 MJE=0.5 TF=5.3E-10 CJC=1.65E-11 VJC=0.3 MJC=0.3 TR=9.35E-8 
+ XTB=1.5 )

* Origin: Mcebjt.lib
