
*2N2222 MCE 5-20-97
*Ref: Motorola Small-Signal Device Databook, Q4/94
*Si 400mW 30V 800mA 300MHz GenPurp pkg:TO-18 3,2,1
.MODEL 2N2222 NPN (IS=81.2F NF=1 BF=195 VAF=98.6 IKF=0.48 ISE=53.7P NE=2
+ BR=4 NR=1 VAR=20 IKR=0.72 RE=64.4M RB=0.258 RC=25.8M XTB=1.5
+ CJE=89.5P VJE=1.1 MJE=0.5 CJC=28.9P VJC=0.3 MJC=0.3 TF=530P TR=368N)

* Origin: Mcebjt.lib
