
*2N4393
*40V 30mA Dep-Mode pkg:TO-18 2,3,1
.MODEL 2N4393 NJF(VTO=-1.422 BETA=0.009109 LAMBDA=0.006 RD=1 RS=1 
+ CGS=4.06E-12 CGD=4.57E-12 IS=2.052E-13 KF=1.23E-16 )

* Origin: Mcejfets.lib
