
*PMOS
*Default P-Channel MOSFET
.MODEL PMOS PMOS()

* Origin: Mcemos.lib